Circuit: * C:\Users\jakea\OneDrive\Documents\Dekatron\Dekatron\Models\Doubler.asc

Limiting rise time of source v3 to 3e-07
Limiting fall time of source v3 to 3e-07
Limiting rise time of source v2 to 3e-07
Limiting fall time of source v2 to 3e-07
Direct Newton iteration for .op point succeeded.

Date: Tue Apr  7 20:45:29 2020
Total elapsed time: 0.233 seconds.

tnom = 27
temp = 27
method = modified trap
totiter = 48061
traniter = 48055
tranpoints = 13880
accept = 11195
rejected = 2685
matrix size = 9
fillins = 1
solver = Normal
Matrix Compiler1: 332 bytes object code size  0.1/0.1/[0.1]
Matrix Compiler2: off  [0.1]/0.2/0.1

