Circuit: * C:\Users\jakea\OneDrive\Documents\Dekatron\Dekatron\Models\doubler_555.asc

Direct Newton iteration for .op point succeeded.

Date: Wed Apr 22 23:34:39 2020
Total elapsed time: 1.216 seconds.

tnom = 27
temp = 27
method = modified trap
totiter = 163382
traniter = 163363
tranpoints = 35837
accept = 26897
rejected = 8940
matrix size = 28
fillins = 12
solver = Normal
Matrix Compiler1: 1.69 KB object code size  0.5/0.4/[0.2]
Matrix Compiler2: off  [0.3]/0.5/0.7

