Circuit: * C:\Users\jakea\OneDrive\Documents\Dekatron\Dekatron\Models\Draft1.asc

Limiting rise time of source v1 to 1e-05
Limiting fall time of source v1 to 1e-05
Direct Newton iteration for .op point succeeded.

Date: Tue Apr 14 21:02:34 2020
Total elapsed time: 0.107 seconds.

tnom = 27
temp = 27
method = modified trap
totiter = 5952
traniter = 5947
tranpoints = 1988
accept = 1747
rejected = 241
matrix size = 7
fillins = 0
solver = Normal
Matrix Compiler1: 366 bytes object code size  0.2/0.1/[0.1]
Matrix Compiler2: off  [0.1]/0.1/0.2

