Circuit: * C:\Users\jakea\OneDrive\Documents\Dekatron\Dekatron\Models\Generic_boost.asc

C7: both pins shorted together -- ignoring.
Limiting rise time of source v5 to 1e-06
Limiting fall time of source v5 to 1e-06
Limiting rise time of source v3 to 1e-06
Limiting fall time of source v3 to 1e-06
Limiting rise time of source v1 to 1e-06
Limiting fall time of source v1 to 1e-06
Direct Newton iteration for .op point succeeded.

Date: Sat Apr 25 16:43:26 2020
Total elapsed time: 30.714 seconds.

tnom = 27
temp = 27
method = modified trap
totiter = 2687749
traniter = 2687735
tranpoints = 639658
accept = 469147
rejected = 170511
matrix size = 44
fillins = 0
solver = Normal
Matrix Compiler1: 2.72 KB object code size  0.8/0.7/[0.3]
Matrix Compiler2: off  [0.5]/0.9/0.9

