Circuit: * C:\Users\jakea\OneDrive\Documents\Dekatron\Dekatron\Models\Generic_boost.asc

C7: both pins shorted together -- ignoring.
Limiting rise time of source v3 to 1e-06
Limiting fall time of source v3 to 1e-06
Limiting rise time of source v1 to 1e-06
Limiting fall time of source v1 to 1e-06
Direct Newton iteration for .op point succeeded.
Heightened Def Con from 0.02513 to 0.02513
Heightened Def Con from 0.0252 to 0.0252

Date: Thu Apr 23 01:14:45 2020
Total elapsed time: 11.422 seconds.

tnom = 27
temp = 27
method = modified trap
totiter = 1560642
traniter = 1560628
tranpoints = 375946
accept = 276075
rejected = 99873
matrix size = 31
fillins = 0
solver = Normal
Matrix Compiler1: 1.96 KB object code size  0.6/0.6/[0.2]
Matrix Compiler2: off  [0.4]/0.7/0.8

